 20

N  12.350  26.936  13.026
C  11.996  25.616  13.539
C  12.837  24.528  12.884
O  13.320  23.615  13.563
C  10.509  25.382  13.242
C  10.019  24.001  13.610
C   9.881  23.644  14.962
C   9.730  23.063  12.605
C   9.455  22.353  15.316
C   9.294  21.777  12.957
C   9.163  21.418  14.309
H  11.671  27.477  12.504
H  12.167  25.577  14.615
H  10.327  25.546  12.179
H   9.922  26.116  13.787
H  10.102  24.368  15.727
H   9.853  23.319  11.561
H   9.357  22.083  16.358
H   9.071  21.068  12.178
H   8.850  20.420  14.574
