 21

N  15.242  15.433  13.555
C  13.869  15.516  13.086
C  13.870  15.853  11.600
O  14.788  16.503  11.096
C  13.095  16.539  13.936
C  12.370  15.960  15.137
C  13.053  15.152  16.068
C  10.999  16.226  15.320
C  12.359  14.569  17.143
C  10.305  15.667  16.407
C  10.980  14.823  17.311
O  10.303  14.255  18.341
H  15.782  16.289  13.570
H  13.365  14.555  13.192
H  12.367  17.035  13.300
H  13.767  17.313  14.292
H  14.109  14.957  15.951
H  10.477  16.854  14.615
H  12.885  13.922  17.828
H   9.254  15.862  16.546
H  10.864  13.651  18.830
